*SRC=1N4003;DI_1N4003;Diodes;Si;  200V  1.00A  3.00us   Diodes, Inc. diode
.MODEL DI_1N4003 D  ( IS=76.9p RS=42.0m BV=200 IBV=5.00u
+ CJO=39.8p  M=0.333 N=1.45 TT=4.32u )